IEEETestCases/123Bus/ieee123_VLN_Node.Txt

LINE-GROUND and LINE-LINE VOLTAGES BY BUS & NODE

Bus      Node    VLN (kV)   Angle      pu     Base kV    Node-Node   VLL (kV)  Angle      pu

150 .... 1       2.4018 /_    0.0   0.99999     4.160        1-2       4.16 /_   30.0   0.99999
   -     2       2.4018 /_ -120.0   0.99999     4.160        2-3       4.16 /_  -90.0   0.99999
   -     3       2.4018 /_  120.0   0.99999     4.160        3-1       4.16 /_  150.0   0.99999
150R ... 1       2.4918 /_    0.0    1.0375     4.160        1-2     4.3159 /_   30.0    1.0375
   -     2       2.4918 /_ -120.0    1.0375     4.160        2-3      4.316 /_  -90.0    1.0375
   -     3       2.4918 /_  120.0    1.0375     4.160        3-1      4.316 /_  150.0    1.0375
149 .... 1       2.4918 /_    0.0    1.0375     4.160        1-2     4.3159 /_   30.0    1.0375
   -     2       2.4918 /_ -120.0    1.0375     4.160        2-3      4.316 /_  -90.0    1.0375
   -     3       2.4918 /_  120.0    1.0375     4.160        3-1      4.316 /_  150.0    1.0375
1 ...... 1       2.4617 /_   -0.6     1.025     4.160        1-2      4.278 /_   29.7    1.0284
   -     2       2.4861 /_ -120.3    1.0351     4.160        2-3     4.2941 /_  -90.4    1.0322
   -     3       2.4708 /_  119.6    1.0288     4.160        3-1     4.2775 /_  149.4    1.0282
2 ...... 2       2.4856 /_ -120.3    1.0349     4.160
3 ...... 3       2.4669 /_  119.6    1.0271     4.160
7 ...... 1       2.4393 /_   -1.1    1.0156     4.160        1-2     4.2505 /_   29.5    1.0217
   -     2        2.482 /_ -120.6    1.0334     4.160        2-3     4.2787 /_  -90.8    1.0285
   -     3       2.4574 /_  119.4    1.0232     4.160        3-1     4.2511 /_  149.0    1.0219
4 ...... 3       2.4656 /_  119.6    1.0266     4.160
5 ...... 3       2.4637 /_  119.6    1.0258     4.160
6 ...... 3       2.4621 /_  119.6    1.0251     4.160
8 ...... 1       2.4248 /_   -1.4    1.0096     4.160        1-2     4.2324 /_   29.3    1.0174
   -     2       2.4791 /_ -120.7    1.0322     4.160        2-3     4.2685 /_  -91.0    1.0261
   -     3       2.4485 /_  119.2    1.0195     4.160        3-1     4.2338 /_  148.7    1.0177
12 ..... 2       2.4784 /_ -120.7    1.0319     4.160
9 ...... 1       2.4212 /_   -1.4    1.0081     4.160
13 ..... 1       2.4055 /_   -1.8    1.0016     4.160        1-2     4.2072 /_   29.1    1.0114
   -     2       2.4739 /_ -121.0      1.03     4.160        2-3     4.2534 /_  -91.3    1.0224
   -     3       2.4352 /_  118.9    1.0139     4.160        3-1     4.2086 /_  148.4    1.0117
9R ..... 1       2.4212 /_   -1.4    1.0081     4.160
14 ..... 1       2.4172 /_   -1.5    1.0064     4.160
34 ..... 3       2.4329 /_  118.9     1.013     4.160
18 ..... 1       2.3837 /_   -2.3   0.99249     4.160        1-2     4.1763 /_   28.8    1.0039
   -     2       2.4638 /_ -121.2    1.0258     4.160        2-3     4.2254 /_  -91.5    1.0157
   -     3       2.4177 /_  118.9    1.0066     4.160        3-1     4.1818 /_  148.1    1.0052
11 ..... 1       2.4156 /_   -1.5    1.0058     4.160
10 ..... 1       2.4164 /_   -1.5    1.0061     4.160
15 ..... 3        2.432 /_  118.9    1.0126     4.160
16 ..... 3       2.4296 /_  118.9    1.0116     4.160
17 ..... 3       2.4309 /_  118.9    1.0121     4.160
19 ..... 1       2.3806 /_   -2.3   0.99117     4.160
21 ..... 1       2.3823 /_   -2.3   0.99191     4.160        1-2     4.1741 /_   28.8    1.0034
   -     2       2.4639 /_ -121.2    1.0259     4.160        2-3     4.2235 /_  -91.5    1.0153
   -     3        2.415 /_  118.9    1.0055     4.160        3-1     4.1789 /_  148.1    1.0045
20 ..... 1       2.3785 /_   -2.3   0.99031     4.160
22 ..... 2       2.4603 /_ -121.3    1.0244     4.160
23 ..... 1       2.3813 /_   -2.4   0.99147     4.160        1-2     4.1725 /_   28.8     1.003
   -     2       2.4648 /_ -121.2    1.0263     4.160        2-3     4.2226 /_  -91.5    1.0151
   -     3       2.4123 /_  118.8    1.0044     4.160        3-1     4.1765 /_  148.0     1.004
24 ..... 3        2.409 /_  118.8     1.003     4.160
25 ..... 1       2.3797 /_   -2.4   0.99079     4.160        1-2     4.1707 /_   28.8    1.0026
   -     2       2.4659 /_ -121.2    1.0267     4.160        2-3     4.2219 /_  -91.6    1.0149
   -     3       2.4103 /_  118.8    1.0035     4.160        3-1     4.1745 /_  148.0    1.0035
25R .... 1       2.4094 /_   -2.4    1.0032     4.160
   -     3       2.4103 /_  118.8    1.0035     4.160        3-1     4.2004 /_  148.2    1.0097
26 ..... 1       2.4088 /_   -2.4    1.0029     4.160
   -     3       2.4091 /_  118.8     1.003     4.160        3-1     4.1991 /_  148.2    1.0094
28 ..... 1       2.3788 /_   -2.4   0.99041     4.160        1-2     4.1698 /_   28.8    1.0023
   -     2       2.4665 /_ -121.2    1.0269     4.160        2-3     4.2217 /_  -91.6    1.0148
   -     3       2.4095 /_  118.8    1.0032     4.160        3-1     4.1737 /_  148.0    1.0033
27 ..... 1       2.4079 /_   -2.5    1.0026     4.160
   -     3        2.409 /_  118.8     1.003     4.160        3-1     4.1989 /_  148.2    1.0093
31 ..... 3       2.4077 /_  118.8    1.0024     4.160
33 ..... 1       2.4048 /_   -2.5    1.0012     4.160
29 ..... 1       2.3783 /_   -2.5   0.99024     4.160        1-2     4.1691 /_   28.8    1.0022
   -     2       2.4669 /_ -121.2    1.0271     4.160        2-3     4.2213 /_  -91.6    1.0147
   -     3       2.4085 /_  118.8    1.0028     4.160        3-1     4.1727 /_  148.0    1.0031
30 ..... 1       2.3789 /_   -2.5   0.99048     4.160        1-2     4.1692 /_   28.8    1.0022
   -     2       2.4668 /_ -121.2    1.0271     4.160        2-3      4.221 /_  -91.6    1.0147
   -     3       2.4074 /_  118.8    1.0024     4.160        3-1      4.172 /_  148.0    1.0029
250 .... 1       2.3789 /_   -2.5   0.99048     4.160        1-2     4.1692 /_   28.8    1.0022
   -     2       2.4668 /_ -121.2    1.0271     4.160        2-3      4.221 /_  -91.6    1.0147
   -     3       2.4074 /_  118.8    1.0024     4.160        3-1      4.172 /_  148.0    1.0029
32 ..... 3       2.4067 /_  118.8    1.0021     4.160
35 ..... 1       2.3771 /_   -2.3   0.98973     4.160        1-2     4.1653 /_   28.7    1.0013
   -     2       2.4577 /_ -121.3    1.0233     4.160        2-3     4.2173 /_  -91.5    1.0138
   -     3       2.4151 /_  118.8    1.0056     4.160        3-1     4.1742 /_  148.0    1.0034
36 ..... 1       2.3748 /_   -2.4   0.98875     4.160        1-2     4.1629 /_   28.7    1.0007
   -     2       2.4566 /_ -121.4    1.0228     4.160
40 ..... 1       2.3735 /_   -2.4   0.98824     4.160        1-2       4.16 /_   28.7         1
   -     2       2.4549 /_ -121.4    1.0221     4.160        2-3     4.2127 /_  -91.6    1.0127
   -     3       2.4126 /_  118.8    1.0045     4.160        3-1     4.1687 /_  147.9    1.0021
37 ..... 1       2.3728 /_   -2.4   0.98792     4.160
38 ..... 2        2.455 /_ -121.4    1.0222     4.160
39 ..... 2        2.454 /_ -121.4    1.0218     4.160
41 ..... 3       2.4115 /_  118.8    1.0041     4.160
42 ..... 1       2.3698 /_   -2.4   0.98667     4.160        1-2     4.1548 /_   28.7   0.99876
   -     2       2.4521 /_ -121.4     1.021     4.160        2-3     4.2083 /_  -91.6    1.0116
   -     3       2.4105 /_  118.7    1.0036     4.160        3-1     4.1635 /_  147.9    1.0008
43 ..... 2       2.4489 /_ -121.4    1.0196     4.160
44 ..... 1       2.3672 /_   -2.4    0.9856     4.160        1-2     4.1511 /_   28.6   0.99786
   -     2       2.4504 /_ -121.4    1.0202     4.160        2-3     4.2051 /_  -91.7    1.0109
   -     3       2.4085 /_  118.7    1.0028     4.160        3-1     4.1594 /_  147.8   0.99987
45 ..... 1        2.366 /_   -2.4   0.98511     4.160
47 ..... 1       2.3647 /_   -2.5   0.98456     4.160        1-2     4.1469 /_   28.6   0.99686
   -     2       2.4478 /_ -121.5    1.0192     4.160        2-3     4.2012 /_  -91.7    1.0099
   -     3       2.4061 /_  118.6    1.0018     4.160        3-1     4.1547 /_  147.8   0.99871
46 ..... 1       2.3651 /_   -2.5   0.98475     4.160
48 ..... 1        2.364 /_   -2.5   0.98429     4.160        1-2     4.1458 /_   28.6   0.99658
   -     2       2.4471 /_ -121.5    1.0189     4.160        2-3     4.2002 /_  -91.7    1.0097
   -     3       2.4056 /_  118.6    1.0016     4.160        3-1     4.1536 /_  147.8   0.99846
49 ..... 1        2.364 /_   -2.5   0.98428     4.160        1-2     4.1452 /_   28.6   0.99645
   -     2       2.4465 /_ -121.5    1.0186     4.160        2-3     4.1997 /_  -91.7    1.0095
   -     3       2.4054 /_  118.6    1.0015     4.160        3-1     4.1531 /_  147.8   0.99833
50 ..... 1        2.364 /_   -2.5   0.98426     4.160        1-2     4.1448 /_   28.6   0.99635
   -     2       2.4466 /_ -121.5    1.0186     4.160        2-3     4.1995 /_  -91.7    1.0095
   -     3       2.4045 /_  118.6    1.0011     4.160        3-1     4.1523 /_  147.8   0.99815
51 ..... 1       2.3636 /_   -2.5    0.9841     4.160        1-2     4.1445 /_   28.6   0.99628
   -     2       2.4467 /_ -121.5    1.0187     4.160        2-3     4.1995 /_  -91.7    1.0095
   -     3       2.4045 /_  118.6    1.0011     4.160        3-1     4.1522 /_  147.8   0.99812
151 .... 1       2.3636 /_   -2.5    0.9841     4.160        1-2     4.1445 /_   28.6   0.99628
   -     2       2.4467 /_ -121.5    1.0187     4.160        2-3     4.1995 /_  -91.7    1.0095
   -     3       2.4045 /_  118.6    1.0011     4.160        3-1     4.1522 /_  147.8   0.99812
52 ..... 1       2.3912 /_   -2.2   0.99558     4.160        1-2     4.1896 /_   28.8    1.0071
   -     2       2.4711 /_ -121.2    1.0289     4.160        2-3     4.2443 /_  -91.5    1.0203
   -     3       2.4275 /_  118.7    1.0107     4.160        3-1     4.1922 /_  148.0    1.0077
53 ..... 1       2.3846 /_   -2.4   0.99286     4.160        1-2     4.1812 /_   28.7    1.0051
   -     2       2.4693 /_ -121.3    1.0281     4.160        2-3     4.2397 /_  -91.7    1.0192
   -     3       2.4238 /_  118.6    1.0092     4.160        3-1     4.1843 /_  147.8    1.0058
54 ..... 1        2.381 /_   -2.5   0.99133     4.160        1-2     4.1763 /_   28.7    1.0039
   -     2        2.468 /_ -121.4    1.0276     4.160        2-3     4.2368 /_  -91.8    1.0185
   -     3       2.4215 /_  118.5    1.0082     4.160        3-1     4.1794 /_  147.7    1.0047
55 ..... 1       2.3805 /_   -2.5   0.99112     4.160        1-2     4.1759 /_   28.7    1.0038
   -     2       2.4678 /_ -121.4    1.0275     4.160        2-3     4.2366 /_  -91.8    1.0184
   -     3       2.4216 /_  118.5    1.0083     4.160        3-1     4.1793 /_  147.7    1.0046
57 ..... 1       2.3734 /_   -2.8   0.98818     4.160        1-2     4.1621 /_   28.4    1.0005
   -     2       2.4615 /_ -121.6    1.0248     4.160        2-3      4.226 /_  -92.0    1.0159
   -     3       2.4154 /_  118.3    1.0057     4.160        3-1     4.1694 /_  147.5    1.0023
56 ..... 1       2.3804 /_   -2.5   0.99109     4.160        1-2     4.1757 /_   28.7    1.0038
   -     2       2.4674 /_ -121.4    1.0273     4.160        2-3     4.2362 /_  -91.8    1.0183
   -     3       2.4218 /_  118.5    1.0084     4.160        3-1     4.1792 /_  147.7    1.0046
58 ..... 2       2.4599 /_ -121.6    1.0242     4.160
60 ..... 1       2.3576 /_   -3.5   0.98162     4.160        1-2     4.1325 /_   27.9   0.99338
   -     2       2.4498 /_ -122.0      1.02     4.160        2-3     4.2047 /_  -92.4    1.0107
   -     3        2.401 /_  117.8    0.9997     4.160        3-1     4.1479 /_  146.9   0.99708
59 ..... 2       2.4592 /_ -121.6    1.0239     4.160
61 ..... 1       2.3576 /_   -3.5   0.98162     4.160        1-2     4.1325 /_   27.9   0.99338
   -     2       2.4498 /_ -122.0      1.02     4.160        2-3     4.2047 /_  -92.4    1.0107
   -     3        2.401 /_  117.8    0.9997     4.160        3-1     4.1479 /_  146.9   0.99708
62 ..... 1       2.3557 /_   -3.5   0.98083     4.160        1-2     4.1281 /_   27.9   0.99233
   -     2       2.4471 /_ -122.0    1.0189     4.160        2-3      4.199 /_  -92.4    1.0094
   -     3       2.3963 /_  117.8   0.99773     4.160        3-1     4.1417 /_  146.9    0.9956
63 ..... 1       2.3543 /_   -3.4   0.98022     4.160        1-2     4.1251 /_   27.9    0.9916
   -     2        2.445 /_ -122.0     1.018     4.160        2-3     4.1955 /_  -92.4    1.0085
   -     3        2.394 /_  117.8   0.99675     4.160        3-1      4.138 /_  146.9    0.9947
64 ..... 1       2.3535 /_   -3.4   0.97988     4.160        1-2     4.1202 /_   27.9   0.99043
   -     2       2.4404 /_ -121.9    1.0161     4.160        2-3     4.1885 /_  -92.4    1.0069
   -     3       2.3889 /_  117.8   0.99463     4.160        3-1     4.1318 /_  146.9   0.99321
65 ..... 1       2.3518 /_   -3.4   0.97918     4.160        1-2      4.117 /_   28.0   0.98966
   -     2       2.4396 /_ -121.9    1.0158     4.160        2-3     4.1826 /_  -92.4    1.0054
   -     3       2.3818 /_  117.8   0.99169     4.160        3-1     4.1242 /_  147.0    0.9914
66 ..... 1       2.3523 /_   -3.5   0.97941     4.160        1-2     4.1169 /_   28.0   0.98964
   -     2       2.4402 /_ -121.9     1.016     4.160        2-3     4.1806 /_  -92.5     1.005
   -     3       2.3783 /_  117.8   0.99022     4.160        3-1     4.1221 /_  147.0   0.99089
67 ..... 1        2.471 /_   -3.7    1.0288     4.160        1-2     4.2525 /_   27.1    1.0222
   -     2       2.4784 /_ -122.2    1.0319     4.160        2-3     4.2891 /_  -92.3     1.031
   -     3       2.4709 /_  117.7    1.0288     4.160        3-1     4.3098 /_  147.0     1.036
68 ..... 1       2.4674 /_   -3.7    1.0273     4.160
72 ..... 1       2.4719 /_   -3.8    1.0292     4.160        1-2     4.2516 /_   27.0     1.022
   -     2       2.4764 /_ -122.3    1.0311     4.160        2-3     4.2873 /_  -92.4    1.0306
   -     3       2.4703 /_  117.6    1.0285     4.160        3-1     4.3097 /_  146.9     1.036
97 ..... 1       2.4686 /_   -3.8    1.0278     4.160        1-2     4.2488 /_   27.1    1.0213
   -     2       2.4772 /_ -122.2    1.0314     4.160        2-3     4.2865 /_  -92.3    1.0304
   -     3       2.4691 /_  117.7     1.028     4.160        3-1     4.3069 /_  147.0    1.0353
69 ..... 1       2.4633 /_   -3.8    1.0256     4.160
70 ..... 1       2.4604 /_   -3.8    1.0244     4.160
71 ..... 1       2.4588 /_   -3.8    1.0238     4.160
73 ..... 3       2.4652 /_  117.5    1.0264     4.160
76 ..... 1       2.4717 /_   -3.9    1.0291     4.160        1-2     4.2511 /_   26.9    1.0219
   -     2       2.4752 /_ -122.4    1.0306     4.160        2-3     4.2866 /_  -92.4    1.0304
   -     3       2.4718 /_  117.5    1.0291     4.160        3-1     4.3111 /_  146.8    1.0363
74 ..... 3       2.4607 /_  117.5    1.0245     4.160
75 ..... 3       2.4583 /_  117.5    1.0235     4.160
77 ..... 1       2.4744 /_   -3.9    1.0302     4.160        1-2     4.2563 /_   26.8    1.0231
   -     2        2.478 /_ -122.4    1.0317     4.160        2-3     4.2908 /_  -92.5    1.0314
   -     3        2.474 /_  117.5    1.0301     4.160        3-1     4.3151 /_  146.8    1.0373
86 ..... 1       2.4696 /_   -3.9    1.0282     4.160        1-2     4.2486 /_   26.8    1.0213
   -     2       2.4712 /_ -122.5    1.0289     4.160        2-3     4.2833 /_  -92.5    1.0296
   -     3        2.475 /_  117.5    1.0305     4.160        3-1     4.3121 /_  146.8    1.0366
78 ..... 1       2.4751 /_   -4.0    1.0305     4.160        1-2     4.2576 /_   26.8    1.0235
   -     2        2.479 /_ -122.5    1.0322     4.160        2-3     4.2921 /_  -92.5    1.0317
   -     3       2.4744 /_  117.4    1.0302     4.160        3-1     4.3161 /_  146.7    1.0375
79 ..... 1       2.4744 /_   -4.0    1.0302     4.160        1-2     4.2571 /_   26.8    1.0233
   -     2       2.4793 /_ -122.5    1.0323     4.160        2-3      4.292 /_  -92.5    1.0317
   -     3       2.4743 /_  117.4    1.0302     4.160        3-1     4.3159 /_  146.7    1.0375
80 ..... 1         2.48 /_   -4.0    1.0326     4.160        1-2     4.2654 /_   26.8    1.0253
   -     2       2.4831 /_ -122.5    1.0339     4.160        2-3     4.2984 /_  -92.6    1.0333
   -     3       2.4765 /_  117.3    1.0311     4.160        3-1     4.3213 /_  146.7    1.0388
81 ..... 1       2.4819 /_   -4.0    1.0334     4.160        1-2     4.2684 /_   26.7    1.0261
   -     2       2.4851 /_ -122.5    1.0347     4.160        2-3     4.3011 /_  -92.7    1.0339
   -     3        2.477 /_  117.3    1.0313     4.160        3-1     4.3232 /_  146.7    1.0392
82 ..... 1       2.4839 /_   -4.1    1.0342     4.160        1-2     4.2726 /_   26.7    1.0271
   -     2       2.4882 /_ -122.6     1.036     4.160        2-3     4.3053 /_  -92.7    1.0349
   -     3       2.4789 /_  117.3    1.0321     4.160        3-1     4.3267 /_  146.6    1.0401
84 ..... 3       2.4708 /_  117.2    1.0287     4.160
83 ..... 1       2.4867 /_   -4.1    1.0353     4.160        1-2     4.2774 /_   26.7    1.0282
   -     2       2.4909 /_ -122.6    1.0371     4.160        2-3     4.3097 /_  -92.7     1.036
   -     3       2.4809 /_  117.2    1.0329     4.160        3-1     4.3305 /_  146.6     1.041
85 ..... 3       2.4679 /_  117.2    1.0275     4.160
87 ..... 1       2.4684 /_   -3.9    1.0277     4.160        1-2     4.2474 /_   26.7     1.021
   -     2       2.4695 /_ -122.6    1.0282     4.160        2-3     4.2814 /_  -92.5    1.0292
   -     3       2.4762 /_  117.5     1.031     4.160        3-1     4.3122 /_  146.7    1.0366
88 ..... 1       2.4683 /_   -4.0    1.0277     4.160
89 ..... 1       2.4674 /_   -3.9    1.0273     4.160        1-2     4.2471 /_   26.7    1.0209
   -     2        2.469 /_ -122.6     1.028     4.160        2-3      4.281 /_  -92.5    1.0291
   -     3       2.4771 /_  117.5    1.0314     4.160        3-1     4.3118 /_  146.7    1.0365
90 ..... 2       2.4688 /_ -122.7    1.0279     4.160
91 ..... 1       2.4669 /_   -3.9    1.0271     4.160        1-2     4.2464 /_   26.7    1.0208
   -     2       2.4682 /_ -122.7    1.0277     4.160        2-3     4.2808 /_  -92.5    1.0291
   -     3       2.4776 /_  117.5    1.0316     4.160        3-1     4.3114 /_  146.7    1.0364
92 ..... 3       2.4774 /_  117.4    1.0315     4.160
93 ..... 1       2.4661 /_   -3.9    1.0268     4.160        1-2     4.2456 /_   26.7    1.0206
   -     2       2.4679 /_ -122.7    1.0275     4.160        2-3     4.2803 /_  -92.5    1.0289
   -     3       2.4778 /_  117.5    1.0317     4.160        3-1     4.3112 /_  146.7    1.0364
94 ..... 1       2.4644 /_   -3.9    1.0261     4.160
95 ..... 1       2.4661 /_   -3.9    1.0268     4.160        1-2     4.2454 /_   26.7    1.0205
   -     2        2.467 /_ -122.7    1.0272     4.160        2-3     4.2796 /_  -92.5    1.0287
   -     3       2.4782 /_  117.5    1.0318     4.160        3-1     4.3113 /_  146.7    1.0364
96 ..... 2       2.4664 /_ -122.7    1.0269     4.160
98 ..... 1       2.4681 /_   -3.8    1.0276     4.160        1-2     4.2478 /_   27.1    1.0211
   -     2       2.4766 /_ -122.2    1.0311     4.160        2-3     4.2856 /_  -92.3    1.0302
   -     3       2.4686 /_  117.7    1.0278     4.160        3-1      4.306 /_  146.9    1.0351
99 ..... 1       2.4688 /_   -3.8    1.0279     4.160        1-2     4.2471 /_   27.1    1.0209
   -     2       2.4746 /_ -122.2    1.0303     4.160        2-3     4.2838 /_  -92.3    1.0298
   -     3       2.4678 /_  117.6    1.0275     4.160        3-1     4.3049 /_  146.9    1.0348
100 .... 1       2.4692 /_   -3.8    1.0281     4.160        1-2     4.2471 /_   27.1    1.0209
   -     2       2.4745 /_ -122.2    1.0303     4.160        2-3     4.2835 /_  -92.3    1.0297
   -     3       2.4669 /_  117.6    1.0271     4.160        3-1     4.3041 /_  146.9    1.0346
450 .... 1       2.4692 /_   -3.8    1.0281     4.160        1-2     4.2471 /_   27.1    1.0209
   -     2       2.4745 /_ -122.2    1.0303     4.160        2-3     4.2835 /_  -92.3    1.0297
   -     3       2.4669 /_  117.6    1.0271     4.160        3-1     4.3041 /_  146.9    1.0346
197 .... 1       2.4686 /_   -3.8    1.0278     4.160        1-2     4.2488 /_   27.1    1.0213
   -     2       2.4772 /_ -122.2    1.0314     4.160        2-3     4.2865 /_  -92.3    1.0304
   -     3       2.4691 /_  117.7     1.028     4.160        3-1     4.3069 /_  147.0    1.0353
101 .... 1       2.4666 /_   -3.8     1.027     4.160        1-2     4.2459 /_   27.1    1.0207
   -     2       2.4766 /_ -122.2    1.0312     4.160        2-3     4.2848 /_  -92.3      1.03
   -     3       2.4678 /_  117.7    1.0275     4.160        3-1     4.3047 /_  146.9    1.0348
102 .... 3       2.4644 /_  117.6    1.0261     4.160
105 .... 1       2.4634 /_   -3.8    1.0256     4.160        1-2      4.243 /_   27.0    1.0199
   -     2       2.4763 /_ -122.2     1.031     4.160        2-3     4.2835 /_  -92.3    1.0297
   -     3       2.4685 /_  117.7    1.0278     4.160        3-1      4.304 /_  146.9    1.0346
103 .... 3       2.4603 /_  117.6    1.0244     4.160
104 .... 3        2.456 /_  117.6    1.0226     4.160
106 .... 2       2.4736 /_ -122.3    1.0299     4.160
108 .... 1       2.4598 /_   -3.9    1.0242     4.160        1-2       4.24 /_   27.0    1.0192
   -     2       2.4778 /_ -122.3    1.0317     4.160        2-3     4.2833 /_  -92.3    1.0296
   -     3       2.4681 /_  117.7    1.0276     4.160        3-1     4.3029 /_  146.9    1.0343
107 .... 2       2.4702 /_ -122.3    1.0285     4.160
109 .... 1       2.4499 /_   -4.0      1.02     4.160
300 .... 1       2.4598 /_   -3.9    1.0242     4.160        1-2       4.24 /_   27.0    1.0192
   -     2       2.4778 /_ -122.3    1.0317     4.160        2-3     4.2833 /_  -92.3    1.0296
   -     3       2.4681 /_  117.7    1.0276     4.160        3-1     4.3029 /_  146.9    1.0343
110 .... 1       2.4452 /_   -4.0    1.0181     4.160
111 .... 1       2.4435 /_   -4.0    1.0174     4.160
112 .... 1       2.4436 /_   -4.0    1.0174     4.160
113 .... 1       2.4386 /_   -4.1    1.0153     4.160
114 .... 1       2.4376 /_   -4.1    1.0149     4.160
135 .... 1       2.3837 /_   -2.3   0.99249     4.160        1-2     4.1763 /_   28.8    1.0039
   -     2       2.4638 /_ -121.2    1.0258     4.160        2-3     4.2254 /_  -91.5    1.0157
   -     3       2.4177 /_  118.9    1.0066     4.160        3-1     4.1818 /_  148.1    1.0052
152 .... 1       2.4055 /_   -1.8    1.0016     4.160        1-2     4.2072 /_   29.1    1.0114
   -     2       2.4739 /_ -121.0      1.03     4.160        2-3     4.2534 /_  -91.3    1.0224
   -     3       2.4352 /_  118.9    1.0139     4.160        3-1     4.2086 /_  148.4    1.0117
160R ... 1       2.4755 /_   -3.5    1.0307     4.160        1-2     4.2598 /_   27.3     1.024
   -     2       2.4804 /_ -122.0    1.0327     4.160        2-3     4.2962 /_  -92.1    1.0327
   -     3       2.4761 /_  117.8    1.0309     4.160        3-1      4.316 /_  147.2    1.0375
160 .... 1       2.3576 /_   -3.5   0.98162     4.160        1-2     4.1325 /_   27.9   0.99338
   -     2       2.4498 /_ -122.0      1.02     4.160        2-3     4.2047 /_  -92.4    1.0107
   -     3        2.401 /_  117.8    0.9997     4.160        3-1     4.1479 /_  146.9   0.99708
61S .... 1       2.3576 /_   -3.5   0.98162     4.160        1-2     4.1325 /_   27.9   0.99338
   -     2       2.4498 /_ -122.0      1.02     4.160        2-3     4.2047 /_  -92.4    1.0107
   -     3        2.401 /_  117.8    0.9997     4.160        3-1     4.1479 /_  146.9   0.99708
300_OPEN 1       2.3636 /_   -2.5    0.9841     4.160        1-2     4.1445 /_   28.6   0.99628
   -     2       2.4467 /_ -121.5    1.0187     4.160        2-3     4.1995 /_  -91.7    1.0095
   -     3       2.4045 /_  118.6    1.0011     4.160        3-1     4.1522 /_  147.8   0.99812
94_OPEN  1        2.381 /_   -2.5   0.99133     4.160
610 .... 1      0.27436 /_   -2.7   0.99001     0.480        1-2    0.47682 /_   27.9   0.99338
   -     2      0.27817 /_ -122.0    1.0038     0.480        2-3    0.48516 /_  -92.4    1.0107
   -     3      0.27919 /_  117.0    1.0074     0.480        3-1     0.4786 /_  146.9   0.99708
